*Heading
** A FSP is brought into Abaqus using Nastran input file (.bdf). The fluid mesh is generated by Gmsh.   
** Job name: Job-4 Model name: 3Dbarge_abaqus_formulated
** Generated by: Abaqus/CAE 6.13-3
*Preprint, echo=NO, model=NO, history=NO, contact=NO
**
** PARTS
**
*Part, name=STRUCTURE
*Node
 *Node
    576,  -4.26719999,   1.82879996,       2.1336
    577,  -4.26719999,   2.43840003,       2.1336
    578,  -4.26719999,   2.43840003,      -2.1336
    579,  -4.26719999,   2.43840003,  -3.01000007e-08
    580,  -4.26719999,   2.43840003, -0.914399981
    581,  -4.26719999,   2.43840003,   2.43840003
    582,  -4.26719999,   2.43840003,  -2.43840003
    583,  -4.26719999,   4.87680006,  -3.01000007e-08
    584,  -4.26719999,   1.82879996,      -2.1336
    585,  -4.26719999,   2.43840003,  -1.82879996
    586,  -4.26719999,   1.82879996,   1.82879996
    587,  -4.26719999,   1.82879996,  -1.82879996
    588,  -4.26719999,   3.65759993,  -2.11172009
    589,  -4.26719999,   4.55011988,  -1.21920002
    590,  -4.26719999,   4.55011988,   1.21920002
    591,  -4.26719999,   1.82879996,  -3.01000007e-08
    592,  -4.26719999,   3.65759993,   2.11172009
    593,  -4.26719999,   1.82879996,  0.914399981
    594,  -4.26719999,   1.82879996, -0.914399981
    595,  -4.26719999,   2.43840003,  0.914399981
** ... 37083 like lines cut
*Element, type=S4R
40081,  2882,  2363,  2345,  2864
40082,  3622,  2882,  2864,  3389
40083,  2363,   848,   599,  2345
40084,  3623,  2883,  2882,  3622
40085,  3388,  2863,  2883,  3623
40086,  2863,  2344,  2364,  2883
40087,  2883,  2364,  2363,  2882
40088,  2364,   847,   848,  2363
40089,  2344,   600,   847,  2364
40090,  4708,  4196,  4192,  4474
40091,  4196,  3905,  3901,  4192
40092,  3905,  3622,  3389,  3901
40093,  4709,  4197,  4196,  4708
40094,  4197,  3906,  3905,  4196
40095,  3906,  3623,  3622,  3905
40096,  4473,  4193,  4197,  4709
40097,  4193,  3902,  3906,  4197
40098,  3902,  3388,  3623,  3906
40099,  7789,  7277,  7273,  7555
40100,  7277,  6986,  6982,  7273
** ... 38968 like lines cut
*Elset, elset=PSHELL_1
 40081, 40082, 40083, 40084, 40085, 40086, 40087, 40088, 40089, 40090, 40091, 40092, 40093, 40094, 40095, 40096
 40097, 40098, 40099, 40100, 40101, 40102, 40103, 40104, 40105, 40106, 40107, 40108, 40109, 40110, 40111, 40112
 40113, 40114, 40115, 40116, 40117, 40118, 40119, 40120, 40121, 40122, 40123, 40124, 40125, 40126, 40127, 40128
 40129, 40130, 40131, 40132, 40133, 40134, 40135, 40136, 40137, 40138, 40139, 40140, 40141, 40142, 40143, 40144
 40145, 40146, 40147, 40148, 40149, 40150, 40151, 40152, 40153, 40154, 40155, 40156, 40157, 40158, 40159, 40160
 40161, 40162, 40163, 40164, 40165, 40166, 40167, 40168, 40169, 40170, 40171, 40172, 40173, 40174, 40175, 40176
 40177, 40178, 40179, 40180, 40181, 40182, 40183, 40184, 40185, 40186, 40187, 40188, 40189, 40190, 40191, 40192
 40193, 40194, 40195, 40196, 40197, 40198, 40199, 40200, 40201, 40202, 40203, 40204, 40205, 40206, 40207, 40208
 40209, 40210, 40211, 40212, 40213, 40214, 40215, 40216, 40217, 40218, 40219, 40220, 40221, 40222, 40223, 40224
 40225, 40226, 40227, 40228, 40229, 40230, 40231, 40232, 40233, 40234, 40235, 40236, 40237, 40238, 40239, 40240
 40241, 40242, 40243, 40244, 40245, 40246, 40247, 40248, 40249, 40250, 40251, 40252, 40253, 40254, 40255, 40256
 40257, 40258, 40259, 40260, 40261, 40262, 40263, 40264, 40265, 40266, 40267, 40268, 40269, 40270, 40271, 40272
 40273, 40274, 40275, 40276, 40277, 40278, 40279, 40280, 40281, 40282, 40283, 40284, 40285, 40286, 40287, 40288
 40289, 40290, 40291, 40292, 40293, 40294, 40295, 40296, 40297, 40298, 40299, 40300, 40301, 40302, 40303, 40304
 40305, 40306, 40307, 40308, 40309, 40310, 40311, 40312, 40313, 40314, 40315, 40316, 40317, 40318, 40319, 40320
 40321, 40322, 40323, 40324, 40325, 40326, 40327, 40328, 40329, 40330, 40331, 40332, 40333, 40334, 40335, 40336
 40337, 40338, 40339, 40340, 40341, 40342, 40343, 40344, 40345, 40346, 40347, 40348, 40349, 40350, 40351, 40352
 40353, 40354, 40355, 40356, 40357, 40358, 40359, 40360, 40361, 40362, 40363, 40364, 40365, 40366, 40367, 40368
 40369, 40370, 40371, 40372, 40373, 40374, 40375, 40376, 40377, 40378, 40379, 40380, 40381, 40382, 40383, 40384
 40385, 40386, 40387, 40388, 40389, 40390, 40391, 40392, 40393, 40394, 40395, 40396, 40397, 40398, 40399, 40400
** ... 529 like lines cut
*Elset, elset=PSHELL_2
 47137, 47138, 47139, 47140, 47141, 47142, 47143, 47144, 47145, 47146, 47147, 47148, 47149, 47150, 47151, 47152
 47153, 47154, 47155, 47156, 47157, 47158, 47159, 47160, 47161, 47162, 47163, 47164, 47165, 47166, 47167, 47168
 47169, 47170, 47171, 47172, 47173, 47174, 47175, 47176, 47177, 47178, 47179, 47180, 47181, 47182, 47183, 47184
 47185, 47186, 47187, 47188, 47189, 47190, 47191, 47192, 47193, 47194, 47195, 47196, 47197, 47198, 47199, 47200
 47201, 47202, 47203, 47204, 47205, 47206, 47207, 47208, 47209, 47210, 47211, 47212, 47213, 47214, 47215, 47216
 47217, 47218, 47219, 47220, 47221, 47222, 47223, 47224, 47225, 47226, 47227, 47228, 47229, 47230, 47231, 47232
 47233, 47234, 47235, 47236, 47237, 47238, 47239, 47240, 47241, 47242, 47243, 47244, 47245, 47246, 47247, 47248
 47249, 47250, 47251, 47252, 47253, 47254, 47255, 47256, 47257, 47258, 47259, 47260, 47261, 47262, 47263, 47264
 47265, 47266, 47267, 47268, 47269, 47270, 47271, 47272, 47273, 47274, 47275, 47276, 47277, 47278, 47279, 47280
 47281, 47282, 47283, 47284, 47285, 47286, 47287, 47288, 47289, 47290, 47291, 47292, 47293, 47294, 47295, 47296
 47297, 47298, 47299, 47300, 47301, 47302, 47303, 47304, 47305, 47306, 47307, 47308, 47309, 47310, 47311, 47312
 47313, 47314, 47315, 47316, 47317, 47318, 47319, 47320, 47321, 47322, 47323, 47324, 47325, 47326, 47327, 47328
 47329, 47330, 47331, 47332, 47333, 47334, 47335, 47336, 47337, 47338, 47339, 47340, 47341, 47342, 47343, 47344
 47345, 47346, 47347, 47348, 47349, 47350, 47351, 47352, 47353, 47354, 47355, 47356, 47357, 47358, 47359, 47360
 47361, 47362, 47363, 47364, 47365, 47366, 47367, 47368, 47369, 47370, 47371, 47372, 47373, 47374, 47375, 47376
 47377, 47378, 47379, 47380, 47381, 47382, 47383, 47384, 47385, 47386, 47387, 47388, 47389, 47390, 47391, 47392
 47393, 47394, 47395, 47396, 47397, 47398, 47399, 47400, 47401, 47402, 47403, 47404, 47405, 47406, 47407, 47408
 47409, 47410, 47411, 47412, 47413, 47414, 47415, 47416, 47417, 47418, 47419, 47420, 47421, 47422, 47423, 47424
 47425, 47426, 47427, 47428, 47429, 47430, 47431, 47432, 47433, 47434, 47435, 47436, 47437, 47438, 47439, 47440
 47441, 47442, 47443, 47444, 47445, 47446, 47447, 47448, 47449, 47450, 47451, 47452, 47453, 47454, 47455, 47456
** ... 838 like lines cut
*Elset, elset=PSHELL_3
 54949, 54950, 54951, 54952, 54953, 54954, 54955, 54956, 54957, 54958, 54959, 54960, 54961, 54962, 54963, 54964
 54965, 54966, 54967, 54968, 54969, 54970, 54971, 54972, 54973, 54974, 54975, 54976, 54977, 54978, 54979, 54980
 54981, 54982, 54983, 54984, 54985, 54986, 54987, 54988, 54989, 54990, 54991, 54992, 54993, 54994, 54995, 54996
 54997, 54998, 54999, 55000, 55001, 55002, 55003, 55004, 55005, 55006, 55007, 55008, 55009, 55010, 55011, 55012
 55013, 55014, 55015, 55016, 55017, 55018, 55019, 55020, 55021, 55022, 55023, 55024, 55025, 55026, 55027, 55028
 55029, 55030, 55031, 55032, 55033, 55034, 55035, 55036, 55037, 55038, 55039, 55040, 55041, 55042, 55043, 55044
 55045, 55046, 55047, 55048, 55049, 55050, 55051, 55052, 55053, 55054, 55055, 55056, 55057, 55058, 55059, 55060
 55061, 55062, 55063, 55064, 55065, 55066, 55067, 55068, 55069, 55070, 55071, 55072, 55073, 55074, 55075, 55076
 55077, 55078, 55079, 55080, 55081, 55082, 55083, 55084, 55085, 55086, 55087, 55088, 55089, 55090, 55091, 55092
 55093, 55094, 55095, 55096, 55097, 55098, 55099, 55100, 55101, 55102, 55103, 55104, 55105, 55106, 55107, 55108
 55109, 55110, 55111, 55112, 55113, 55114, 55115, 55116, 55117, 55118, 55119, 55120, 55121, 55122, 55123, 55124
 55125, 55126, 55127, 55128, 55129, 55130, 55131, 55132, 55133, 55134, 55135, 55136, 55137, 55138, 55139, 55140
 55141, 55142, 55143, 55144, 55145, 55146, 55147, 55148, 55149, 55150, 55151, 55152, 55153, 55154, 55155, 55156
 55157, 55158, 55159, 55160, 55161, 55162, 55163, 55164, 55165, 55166, 55167, 55168, 55169, 55170, 55171, 55172
 55173, 55174, 55175, 55176, 55177, 55178, 55179, 55180, 55181, 55182, 55183, 55184, 55185, 55186, 55187, 55188
 55189, 55190, 55191, 55192, 55193, 55194, 55195, 55196, 55197, 55198, 55199, 55200, 55201, 55202, 55203, 55204
 55205, 55206, 55207, 55208, 55209, 55210, 55211, 55212, 55213, 55214, 55215, 55216, 55217, 55218, 55219, 55220
 55221, 55222, 55223, 55224, 55225, 55226, 55227, 55228, 55229, 55230, 55231, 55232, 55233, 55234, 55235, 55236
 55237, 55238, 55239, 55240, 55241, 55242, 55243, 55244, 55245, 55246, 55247, 55248, 55249, 55250, 55251, 55252
 55253, 55254, 55255, 55256, 55257, 55258, 55259, 55260, 55261, 55262, 55263, 55264, 55265, 55266, 55267, 55268
** ... 322 like lines cut
*Elset, elset=PSHELL_4
 57469, 57470, 57471, 57472, 57473, 57474, 57475, 57476, 57477, 57478, 57479, 57480, 57481, 57482, 57483, 57484
 57485, 57486, 57487, 57488, 57489, 57490, 57491, 57492, 57493, 57494, 57495, 57496, 57497, 57498, 57499, 57500
 57501, 57502, 57503, 57504, 57505, 57506, 57507, 57508, 57509, 57510, 57511, 57512, 57513, 57514, 57515, 57516
 57517, 57518, 57519, 57520, 57521, 57522, 57523, 57524, 57525, 57526, 57527, 57528, 57529, 57530, 57531, 57532
 57533, 57534, 57535, 57536, 57537, 57538, 57539, 57540, 57541, 57542, 57543, 57544, 57545, 57546, 57547, 57548
 57549, 57550, 57551, 57552, 57553, 57554, 57555, 57556, 57557, 57558, 57559, 57560, 57561, 57562, 57563, 57564
 57565, 57566, 57567, 57568, 57569, 57570, 57571, 57572, 57573, 57574, 57575, 57576, 57577, 57578, 57579, 57580
 57581, 57582, 57583, 57584, 57585, 57586, 57587, 57588, 57589, 57590, 57591, 57592, 57593, 57594, 57595, 57596
 57597, 57598, 57599, 57600, 57601, 57602, 57603, 57604, 57605, 57606, 57607, 57608, 57609, 57610, 57611, 57612
 57613, 57614, 57615, 57616, 57617, 57618, 57619, 57620, 57621, 57622, 57623, 57624, 57625, 57626, 57627, 57628
 57629, 57630, 57631, 57632, 57633, 57634, 57635, 57636, 57637, 57638, 57639, 57640, 57641, 57642, 57643, 57644
 57645, 57646, 57647, 57648, 57649, 57650, 57651, 57652, 57653, 57654, 57655, 57656, 57657, 57658, 57659, 57660
 57661, 57662, 57663, 57664, 57665, 57666, 57667, 57668, 57669, 57670, 57671, 57672, 57673, 57674, 57675, 57676
 57677, 57678, 57679, 57680, 57681, 57682, 57683, 57684, 57685, 57686, 57687, 57688, 57689, 57690, 57691, 57692
 57693, 57694, 57695, 57696, 57697, 57698, 57699, 57700, 57701, 57702, 57703, 57704, 57705, 57706, 57707, 57708
 57709, 57710, 57711, 57712, 57713, 57714, 57715, 57716, 57717, 57718, 57719, 57720, 57721, 57722, 57723, 57724
 57725, 57726, 57727, 57728, 57729, 57730, 57731, 57732, 57733, 57734, 57735, 57736, 57737, 57738, 57739, 57740
 57741, 57742, 57743, 57744, 57745, 57746, 57747, 57748, 57749, 57750, 57751, 57752, 57753, 57754, 57755, 57756
 57757, 57758, 57759, 57760, 57761, 57762, 57763, 57764, 57765, 57766, 57767, 57768, 57769, 57770, 57771, 57772
 57773, 57774, 57775, 57776, 57777, 57778, 57779, 57780, 57781, 57782, 57783, 57784, 57785, 57786, 57787, 57788
** ... 28 like lines cut
*Elset, elset=PSHELL_5, generate
 58981,  65028,      1
*Elset, elset=PSHELL_6
 65029, 65030, 65031, 65032, 65033, 65034, 65035, 65036, 65037, 65038, 65039, 65040, 65041, 65042, 65043, 65044
 65045, 65046, 65047, 65048, 65049, 65050, 65051, 65052, 65053, 65054, 65055, 65056, 65057, 65058, 65059, 65060
 65061, 65062, 65063, 65064, 65065, 65066, 65067, 65068, 65069, 65070, 65071, 65072, 65073, 65074, 65075, 65076
 65077, 65078, 65079, 65080, 65081, 65082, 65083, 65084, 65085, 65086, 65087, 65088, 65089, 65090, 65091, 65092
 65093, 65094, 65095, 65096, 65097, 65098, 65099, 65100, 65101, 65102, 65103, 65104, 65105, 65106, 65107, 65108
 65109, 65110, 65111, 65112, 65113, 65114, 65115, 65116, 65117, 65118, 65119, 65120, 65121, 65122, 65123, 65124
 65125, 65126, 65127, 65128, 65129, 65130, 65131, 65132, 65133, 65134, 65135, 65136, 65137, 65138, 65139, 65140
 65141, 65142, 65143, 65144, 65145, 65146, 65147, 65148, 65149, 65150, 65151, 65152, 65153, 65154, 65155, 65156
 65157, 65158, 65159, 65160, 65161, 65162, 65163, 65164, 65165, 65166, 65167, 65168, 65169, 65170, 65171, 65172
 65173, 65174, 65175, 65176, 65177, 65178, 65179, 65180, 65181, 65182, 65183, 65184, 65185, 65186, 65187, 65188
 65189, 65190, 65191, 65192, 65193, 65194, 65195, 65196, 65197, 65198, 65199, 65200, 65201, 65202, 65203, 65204
 65205, 65206, 65207, 65208, 65209, 65210, 65211, 65212, 65213, 65214, 65215, 65216, 65217, 65218, 65219, 65220
 65221, 65222, 65223, 65224, 65225, 65226, 65227, 65228, 65229, 65230, 65231, 65232, 65233, 65234, 65235, 65236
 65237, 65238, 65239, 65240, 65241, 65242, 65243, 65244, 65245, 65246, 65247, 65248, 65249, 65250, 65251, 65252
 65253, 65254, 65255, 65256, 65257, 65258, 65259, 65260, 65261, 65262, 65263, 65264, 65265, 65266, 65267, 65268
 65269, 65270, 65271, 65272, 65273, 65274, 65275, 65276, 65277, 65278, 65279, 65280, 65281, 65282, 65283, 65284
 65285, 65286, 65287, 65288, 65289, 65290, 65291, 65292, 65293, 65294, 65295, 65296, 65297, 65298, 65299, 65300
 65301, 65302, 65303, 65304, 65305, 65306, 65307, 65308, 65309, 65310, 65311, 65312, 65313, 65314, 65315, 65316
 65317, 65318, 65319, 65320, 65321, 65322, 65323, 65324, 65325, 65326, 65327, 65328, 65329, 65330, 65331, 65332
 65333, 65334, 65335, 65336, 65337, 65338, 65339, 65340, 65341, 65342, 65343, 65344, 65345, 65346, 65347, 65348
** ... 244 like lines cut
** Section: Section-1-PSHELL_1
*Shell Section, elset=PSHELL_1, material=MAT_MID_1, controls=EC-1
0.0254, 5
** Section: Section-2-PSHELL_2
*Shell Section, elset=PSHELL_2, material=MAT_MID_2, controls=EC-1
0.0127, 5
** Section: Section-3-PSHELL_3
*Shell Section, elset=PSHELL_3, material=MAT_MID_3, controls=EC-1
0.003175, 5
** Section: Section-4-PSHELL_4
*Shell Section, elset=PSHELL_4, material=MAT_MID_1, controls=EC-1
0.022225, 5
** Section: Section-5-PSHELL_5
*Shell Section, elset=PSHELL_5, material=MAT_MID_5, controls=EC-1
0.0127, 5
** Section: Section-6-PSHELL_6
*Shell Section, elset=PSHELL_6, material=MAT_MID_4, controls=EC-1
0.0254, 5
*End Part
**
** ASSEMBLY
**
*Assembly, name=Assembly
*Instance, name=STRUCTURE-1, part=STRUCTURE
**    5.334,           0.,       3.6576
*End Instance
**  
*Elset, elset=ALL_MASSIVE_ELEMENTS, instance=Structure-1, generate
 40081,  79068,      1
*Elset, elset=ALL_SHELL_ISO, instance=Structure-1, generate
 40081,  79068,      1
*Elset, elset=FSI_structure_back, internal, instance=STRUCTURE-1
44113, 44114, 44115, 44116, 44117, 44118, 44119, 44120, 44121, 44122, 44123, 44124, 44125, 44126, 44127, 44128
44129, 44130, 44131, 44132, 44133, 44134, 44135, 44136, 44137, 44138, 44139, 44140, 44141, 44142, 44143, 44144
44145, 44146, 44147, 44148, 44149, 44150, 44151, 44152, 44153, 44154, 44155, 44156, 44157, 44158, 44159, 44160
44161, 44162, 44163, 44164, 44165, 44166, 44167, 44168, 44169, 44170, 44171, 44172, 44173, 44174, 44175, 44176
44177, 44178, 44179, 44180, 44181, 44182, 44183, 44184, 44185, 44186, 44187, 44188, 44189, 44190, 44191, 44192
44193, 44194, 44195, 44196, 44197, 44198, 44199, 44200, 44201, 44202, 44203, 44204, 44205, 44206, 44207, 44208
44209, 44210, 44211, 44212, 44213, 44214, 44215, 44216, 44217, 44218, 44219, 44220, 44221, 44222, 44223, 44224
44225, 44226, 44227, 44228, 44229, 44230, 44231, 44232, 44233, 44234, 44235, 44236, 44237, 44238, 44239, 44240
44241, 44242, 44243, 44244, 44245, 44246, 44247, 44248, 44249, 44250, 44251, 44252, 44253, 44254, 44255, 44256
44257, 44258, 44259, 44260, 44261, 44262, 44263, 44264, 44265, 44266, 44267, 44268, 44269, 44270, 44271, 44272
44273, 44274, 44275, 44276, 44277, 44278, 44279, 44280, 44281, 44282, 44283, 44284, 44285, 44286, 44287, 44288
44289, 44290, 44291, 44292, 44293, 44294, 44295, 44296, 44297, 44298, 44299, 44300, 44301, 44302, 44303, 44304
44305, 44306, 44307, 44308, 44309, 44310, 44311, 44312, 44313, 44314, 44315, 44316, 44317, 44318, 44319, 44320
44321, 44322, 44323, 44324, 44325, 44326, 44327, 44328, 44329, 44330, 44331, 44332, 44333, 44334, 44335, 44336
44337, 44338, 44339, 44340, 44341, 44342, 44343, 44344, 44345, 44346, 44347, 44348, 44349, 44350, 44351, 44352
44353, 44354, 44355, 44356, 44357, 44358, 44359, 44360, 44361, 44362, 44363, 44364, 44365, 44366, 44367, 44368
44369, 44370, 44371, 44372, 44373, 44374, 44375, 44376, 44377, 44378, 44379, 44380, 44381, 44382, 44383, 44384
44385, 44386, 44387, 44388, 44389, 44390, 44391, 44392, 44393, 44394, 44395, 44396, 44397, 44398, 44399, 44400
44401, 44402, 44403, 44404, 44405, 44406, 44407, 44408, 44409, 44410, 44411, 44412, 44413, 44414, 44415, 44416
44417, 44418, 44419, 44420, 44421, 44422, 44423, 44424, 44425, 44426, 44427, 44428, 44429, 44430, 44431, 44432
** ... 38 like lines cut
*Elset, elset=FSI_structure_left, internal, instance=STRUCTURE-1
67621, 67622, 67623, 67624, 67625, 67626, 67627, 67628, 67629, 67630, 67631, 67632, 67633, 67634, 67635, 67636
67637, 67638, 67639, 67640, 67641, 67642, 67643, 67644, 67645, 67646, 67647, 67648, 67649, 67650, 67651, 67652
67653, 67654, 67655, 67656, 67657, 67658, 67659, 67660, 67661, 67662, 67663, 67664, 67665, 67666, 67667, 67668
67669, 67670, 67671, 67672, 67673, 67674, 67675, 67676, 67677, 67678, 67679, 67680, 67681, 67682, 67683, 67684
67685, 67686, 67687, 67688, 67689, 67690, 67691, 67692, 67693, 67694, 67695, 67696, 67697, 67698, 67699, 67700
67701, 67702, 67703, 67704, 67705, 67706, 67707, 67708, 67709, 67710, 67711, 67712, 67713, 67714, 67715, 67716
67717, 67718, 67719, 67720, 67721, 67722, 67723, 67724, 67725, 67726, 67727, 67728, 67729, 67730, 67731, 67732
67733, 67734, 67735, 67736, 67737, 67738, 67739, 67740, 67741, 67742, 67743, 67744, 67745, 67746, 67747, 67748
67749, 67750, 67751, 67752, 67753, 67754, 67755, 67756, 67757, 67758, 67759, 67760, 67761, 67762, 67763, 67764
67765, 67766, 67767, 67768, 67769, 67770, 67771, 67772, 67773, 67774, 67775, 67776, 67777, 67778, 67779, 67780
67781, 67782, 67783, 67784, 67785, 67786, 67787, 67788, 67789, 67790, 67791, 67792, 67793, 67794, 67795, 67796
67797, 67798, 67799, 67800, 67801, 67802, 67803, 67804, 67805, 67806, 67807, 67808, 67809, 67810, 67811, 67812
67813, 67814, 67815, 67816, 67817, 67818, 67819, 67820, 67821, 67822, 67823, 67824, 67825, 67826, 67827, 67828
67829, 67830, 67831, 67832, 67833, 67834, 67835, 67836, 67837, 67838, 67839, 67840, 67841, 67842, 67843, 67844
67845, 67846, 67847, 67848, 67849, 67850, 67851, 67852, 67853, 67854, 67855, 67856, 67857, 67858, 67859, 67860
67861, 67862, 67863, 67864, 67865, 67866, 67867, 67868, 67869, 67870, 67871, 67872, 67873, 67874, 67875, 67876
67877, 67878, 67879, 67880, 67881, 67882, 67883, 67884, 67885, 67886, 67887, 67888, 67889, 67890, 67891, 67892
67893, 67894, 67895, 67896, 67897, 67898, 67899, 67900, 67901, 67902, 67903, 67904, 67905, 67906, 67907, 67908
67909, 67910, 67911, 67912, 67913, 67914, 67915, 67916, 67917, 67918, 67919, 67920, 67921, 67922, 67923, 67924
67925, 67926, 67927, 67928, 67929, 67930, 67931, 67932, 67933, 67934, 67935, 67936, 67937, 67938, 67939, 67940
** ... 13 like lines cut
*Elset, elset=FSI_structure_bottom, internal, instance=STRUCTURE-1
40081, 40082, 40083, 40084, 40085, 40086, 40087, 40088, 40089, 40090, 40091, 40092, 40093, 40094, 40095, 40096
40097, 40098, 40099, 40100, 40101, 40102, 40103, 40104, 40105, 40106, 40107, 40108, 40109, 40110, 40111, 40112
40113, 40114, 40115, 40116, 40117, 40118, 40119, 40120, 40121, 40122, 40123, 40124, 40125, 40126, 40127, 40128
40129, 40130, 40131, 40132, 40133, 40134, 40135, 40136, 40137, 40138, 40139, 40140, 40141, 40142, 40143, 40144
40145, 40146, 40147, 40148, 40149, 40150, 40151, 40152, 40153, 40154, 40155, 40156, 40157, 40158, 40159, 40160
40161, 40162, 40163, 40164, 40165, 40166, 40167, 40168, 40169, 40170, 40171, 40172, 40173, 40174, 40175, 40176
40177, 40178, 40179, 40180, 40181, 40182, 40183, 40184, 40185, 40186, 40187, 40188, 40189, 40190, 40191, 40192
40193, 40194, 40195, 40196, 40197, 40198, 40199, 40200, 40201, 40202, 40203, 40204, 40205, 40206, 40207, 40208
40209, 40210, 40211, 40212, 40213, 40214, 40215, 40216, 40217, 40218, 40219, 40220, 40221, 40222, 40223, 40224
40225, 40226, 40227, 40228, 40229, 40230, 40231, 40232, 40233, 40234, 40235, 40236, 40237, 40238, 40239, 40240
40241, 40242, 40243, 40244, 40245, 40246, 40247, 40248, 40249, 40250, 40251, 40252, 40253, 40254, 40255, 40256
40257, 40258, 40259, 40260, 40261, 40262, 40263, 40264, 40265, 40266, 40267, 40268, 40269, 40270, 40271, 40272
40273, 40274, 40275, 40276, 40277, 40278, 40279, 40280, 40281, 40282, 40283, 40284, 40285, 40286, 40287, 40288
40289, 40290, 40291, 40292, 40293, 40294, 40295, 40296, 40297, 40298, 40299, 40300, 40301, 40302, 40303, 40304
40305, 40306, 40307, 40308, 40309, 40310, 40311, 40312, 40313, 40314, 40315, 40316, 40317, 40318, 40319, 40320
40321, 40322, 40323, 40324, 40325, 40326, 40327, 40328, 40329, 40330, 40331, 40332, 40333, 40334, 40335, 40336
40337, 40338, 40339, 40340, 40341, 40342, 40343, 40344, 40345, 40346, 40347, 40348, 40349, 40350, 40351, 40352
40353, 40354, 40355, 40356, 40357, 40358, 40359, 40360, 40361, 40362, 40363, 40364, 40365, 40366, 40367, 40368
40369, 40370, 40371, 40372, 40373, 40374, 40375, 40376, 40377, 40378, 40379, 40380, 40381, 40382, 40383, 40384
40385, 40386, 40387, 40388, 40389, 40390, 40391, 40392, 40393, 40394, 40395, 40396, 40397, 40398, 40399, 40400
** ... 232 like lines cut
*Elset, elset=FSI_structure_front, internal, instance=STRUCTURE-1
44869, 44870, 44871, 44872, 44873, 44874, 44875, 44876, 44877, 44878, 44879, 44880, 44881, 44882, 44883, 44884
44885, 44886, 44887, 44888, 44889, 44890, 44891, 44892, 44893, 44894, 44895, 44896, 44897, 44898, 44899, 44900
44901, 44902, 44903, 44904, 44905, 44906, 44907, 44908, 44909, 44910, 44911, 44912, 44913, 44914, 44915, 44916
44917, 44918, 44919, 44920, 44921, 44922, 44923, 44924, 44925, 44926, 44927, 44928, 44929, 44930, 44931, 44932
44933, 44934, 44935, 44936, 44937, 44938, 44939, 44940, 44941, 44942, 44943, 44944, 44945, 44946, 44947, 44948
44949, 44950, 44951, 44952, 44953, 44954, 44955, 44956, 44957, 44958, 44959, 44960, 44961, 44962, 44963, 44964
44965, 44966, 44967, 44968, 44969, 44970, 44971, 44972, 44973, 44974, 44975, 44976, 44977, 44978, 44979, 44980
44981, 44982, 44983, 44984, 44985, 44986, 44987, 44988, 44989, 44990, 44991, 44992, 44993, 44994, 44995, 44996
44997, 44998, 44999, 45000, 45001, 45002, 45003, 45004, 45005, 45006, 45007, 45008, 45009, 45010, 45011, 45012
45013, 45014, 45015, 45016, 45017, 45018, 45019, 45020, 45021, 45022, 45023, 45024, 45025, 45026, 45027, 45028
45029, 45030, 45031, 45032, 45033, 45034, 45035, 45036, 45037, 45038, 45039, 45040, 45041, 45042, 45043, 45044
45045, 45046, 45047, 45048, 45049, 45050, 45051, 45052, 45053, 45054, 45055, 45056, 45057, 45058, 45059, 45060
45061, 45062, 45063, 45064, 45065, 45066, 45067, 45068, 45069, 45070, 45071, 45072, 45073, 45074, 45075, 45076
45077, 45078, 45079, 45080, 45081, 45082, 45083, 45084, 45085, 45086, 45087, 45088, 45089, 45090, 45091, 45092
45093, 45094, 45095, 45096, 45097, 45098, 45099, 45100, 45101, 45102, 45103, 45104, 45105, 45106, 45107, 45108
45109, 45110, 45111, 45112, 45113, 45114, 45115, 45116, 45117, 45118, 45119, 45120, 45121, 45122, 45123, 45124
45125, 45126, 45127, 45128, 45129, 45130, 45131, 45132, 45133, 45134, 45135, 45136, 45137, 45138, 45139, 45140
45141, 45142, 45143, 45144, 45145, 45146, 45147, 45148, 45149, 45150, 45151, 45152, 45153, 45154, 45155, 45156
45157, 45158, 45159, 45160, 45161, 45162, 45163, 45164, 45165, 45166, 45167, 45168, 45169, 45170, 45171, 45172
45173, 45174, 45175, 45176, 45177, 45178, 45179, 45180, 45181, 45182, 45183, 45184, 45185, 45186, 45187, 45188
** ... 38 like lines cut
*Elset, elset=FSI_structure_right, internal, instance=STRUCTURE-1
67999, 68000, 68001, 68002, 68003, 68004, 68005, 68006, 68007, 68008, 68009, 68010, 68011, 68012, 68013, 68014
68015, 68016, 68017, 68018, 68019, 68020, 68021, 68022, 68023, 68024, 68025, 68026, 68027, 68028, 68029, 68030
68031, 68032, 68033, 68034, 68035, 68036, 68037, 68038, 68039, 68040, 68041, 68042, 68043, 68044, 68045, 68046
68047, 68048, 68049, 68050, 68051, 68052, 68053, 68054, 68055, 68056, 68057, 68058, 68059, 68060, 68061, 68062
68063, 68064, 68065, 68066, 68067, 68068, 68069, 68070, 68071, 68072, 68073, 68074, 68075, 68076, 68077, 68078
68079, 68080, 68081, 68082, 68083, 68084, 68085, 68086, 68087, 68088, 68089, 68090, 68091, 68092, 68093, 68094
68095, 68096, 68097, 68098, 68099, 68100, 68101, 68102, 68103, 68104, 68105, 68106, 68107, 68108, 68109, 68110
68111, 68112, 68113, 68114, 68115, 68116, 68117, 68118, 68119, 68120, 68121, 68122, 68123, 68124, 68125, 68126
68127, 68128, 68129, 68130, 68131, 68132, 68133, 68134, 68135, 68136, 68137, 68138, 68139, 68140, 68141, 68142
68143, 68144, 68145, 68146, 68147, 68148, 68149, 68150, 68151, 68152, 68153, 68154, 68155, 68156, 68157, 68158
68159, 68160, 68161, 68162, 68163, 68164, 68165, 68166, 68167, 68168, 68169, 68170, 68171, 68172, 68173, 68174
68175, 68176, 68177, 68178, 68179, 68180, 68181, 68182, 68183, 68184, 68185, 68186, 68187, 68188, 68189, 68190
68191, 68192, 68193, 68194, 68195, 68196, 68197, 68198, 68199, 68200, 68201, 68202, 68203, 68204, 68205, 68206
68207, 68208, 68209, 68210, 68211, 68212, 68213, 68214, 68215, 68216, 68217, 68218, 68219, 68220, 68221, 68222
68223, 68224, 68225, 68226, 68227, 68228, 68229, 68230, 68231, 68232, 68233, 68234, 68235, 68236, 68237, 68238
68239, 68240, 68241, 68242, 68243, 68244, 68245, 68246, 68247, 68248, 68249, 68250, 68251, 68252, 68253, 68254
68255, 68256, 68257, 68258, 68259, 68260, 68261, 68262, 68263, 68264, 68265, 68266, 68267, 68268, 68269, 68270
68271, 68272, 68273, 68274, 68275, 68276, 68277, 68278, 68279, 68280, 68281, 68282, 68283, 68284, 68285, 68286
68287, 68288, 68289, 68290, 68291, 68292, 68293, 68294, 68295, 68296, 68297, 68298, 68299, 68300, 68301, 68302
68303, 68304, 68305, 68306, 68307, 68308, 68309, 68310, 68311, 68312, 68313, 68314, 68315, 68316, 68317, 68318
** ... 13 like lines cut
*Surface, type=ELEMENT, name=FSI_Structure_back
FSI_structure_back, SNEG
*Surface, type=ELEMENT, name=FSI_Structure_left
FSI_structure_left, SNEG
*Surface, type=ELEMENT, name=FSI_Structure_bottom
FSI_structure_bottom, SNEG
*Surface, type=ELEMENT, name=FSI_Structure_front
FSI_structure_front, SNEG
*Surface, type=ELEMENT, name=FSI_Structure_right
FSI_structure_right, SNEG
*Nset, nset=output_node, instance=STRUCTURE-1
10789 ,17305 
*End Assembly
** 
** ELEMENT CONTROLS
** 
*Section Controls, name=EC-1, hourglass=STIFFNESS
1., 1., 1.
** 
** MATERIALS
** 
**  MATERIALS
*Material, name=MAT_MID_1
*Density
7850.,
*Elastic
 2.04e+11, 0.3
**  material data from MAT1 with MID = 2
** 
*Material, name=MAT_MID_2
*Density
 7861.1,
*Elastic
 2.05e+11, 0.28
**  material data from MAT1 with MID = 3
** 
*Material, name=MAT_MID_3
*Density
7850.,
*Elastic
 2e+11, 0.303
**  material data from MAT1 with MID = 4
** 
*Material, name=MAT_MID_4
*Density
 7540.8,
*Elastic
 2.04e+11, 0.3
**  material data from MAT1 with MID = 5
** 
*Material, name=MAT_MID_5
*Density
4393.,
*Elastic
 2.04e+11, 0.3
**
**
** STEP: Step-1
** 
**Step, name=Step-1, nlgeom=YES, INC=20000
*Step, name=Step-1, nlgeom=YES
shock
**Dynamic, Explicit, direct user control
**1.3826E-6, 0.03
*Dynamic, Explicit
, 0.03 
*Bulk Viscosity
**0.5, 0.
**0.5, 0.
0.0, 0.
*DLOAD
ASSEMBLY. ALL_MASSIVE_ELEMENTS, GRAV, 9.81, 0., -1., 0.
** OUTPUT REQUESTS
** 
** HISTORY OUTPUT: H-Output-1
** 
*Output, history, TIME INTERVAL=1E-5
*Node Output, nset=ASSEMBLY. output_node
U1, U2, U3, V1, V2, V3, A1, A2, A3
*End Step